####################################################################
#  This file was made using the UWquad2D problem type in GiD.      #
#  Created by:  Chris McGann and Pedro Arduino, 2010               #
#              -University of Washington-                          #
####################################################################

wipe

#-----------------------------------------------------------------------------------------
#  1. CREATE SOIL NODES AND FIXITIES
#-----------------------------------------------------------------------------------------
model BasicBuilder -ndm 2 -ndf 2

# define soil nodes
    node        1   -1000.000  -1000.000
    node        2   -1000.000   -990.000
    node        3    -990.000  -1000.000
    node        4    -990.000   -990.000
    node        5   -1000.000   -980.000
    node        6    -980.000  -1000.000
    node        7    -990.000   -980.000
    node        8    -980.000   -990.000
    node        9    -980.000   -980.000
    node       10   -1000.000   -970.000
    node       11    -970.000  -1000.000
    node       12    -970.000   -990.000
    node       13    -990.000   -970.000
    node       14    -980.000   -970.000
    node       15    -970.000   -980.000
    node       16   -1000.000   -960.000
    node       17    -960.000  -1000.000
    node       18    -960.000   -990.000
    node       19    -990.000   -960.000
    node       20    -970.000   -970.000
# ... 20281 like lines cut
puts "Finished creating all -ndf 2 nodes..."


# define fixities for soil nodes
puts "Finished creating all -ndf 2 boundary conditions..."

# define equal degrees of freedom for free-field columns
puts "Finished creating equalDOF constraints for soil columns..."

#-----------------------------------------------------------------------------------------
#  2. CREATE SOIL MATERIALS
#-----------------------------------------------------------------------------------------

nDMaterial ElasticIsotropic 1 5000000 0.25 2
set thick1 1.0
set xWgt1      0.00
#set yWgt1       -19.62
set yWgt1      0.00
puts "Finished creating all soil materials..."

#-----------------------------------------------------------------------------------------
#  3. CREATE SOIL ELEMENTS
#-----------------------------------------------------------------------------------------

# define soil elements
    element quad 1 7952 7788 7790 7958  $thick1 PlaneStrain 1 0.0 0.0 $xWgt1 $yWgt1
    element quad 2 7788 7635 7638 7790  $thick1 PlaneStrain 1 0.0 0.0 $xWgt1 $yWgt1
    element quad 3 7635 7476 7480 7638  $thick1 PlaneStrain 1 0.0 0.0 $xWgt1 $yWgt1
    element quad 4 7476 7325 7328 7480  $thick1 PlaneStrain 1 0.0 0.0 $xWgt1 $yWgt1
    element quad 5 7325 7180 7183 7328  $thick1 PlaneStrain 1 0.0 0.0 $xWgt1 $yWgt1
    element quad 6 7180 7026 7029 7183  $thick1 PlaneStrain 1 0.0 0.0 $xWgt1 $yWgt1
    element quad 7 7026 6879 6882 7029  $thick1 PlaneStrain 1 0.0 0.0 $xWgt1 $yWgt1
    element quad 8 6879 6733 6735 6882  $thick1 PlaneStrain 1 0.0 0.0 $xWgt1 $yWgt1
    element quad 9 6733 6589 6594 6735  $thick1 PlaneStrain 1 0.0 0.0 $xWgt1 $yWgt1
    element quad 10 6589 6449 6454 6594  $thick1 PlaneStrain 1 0.0 0.0 $xWgt1 $yWgt1
    element quad 11 6449 6299 6304 6454  $thick1 PlaneStrain 1 0.0 0.0 $xWgt1 $yWgt1
    element quad 12 6299 6166 6169 6304  $thick1 PlaneStrain 1 0.0 0.0 $xWgt1 $yWgt1
    element quad 13 6166 6027 6031 6169  $thick1 PlaneStrain 1 0.0 0.0 $xWgt1 $yWgt1
    element quad 14 6027 5890 5894 6031  $thick1 PlaneStrain 1 0.0 0.0 $xWgt1 $yWgt1
    element quad 15 5890 5755 5762 5894  $thick1 PlaneStrain 1 0.0 0.0 $xWgt1 $yWgt1
    element quad 16 5755 5617 5619 5762  $thick1 PlaneStrain 1 0.0 0.0 $xWgt1 $yWgt1
    element quad 17 5617 5490 5498 5619  $thick1 PlaneStrain 1 0.0 0.0 $xWgt1 $yWgt1
    element quad 18 5490 5357 5361 5498  $thick1 PlaneStrain 1 0.0 0.0 $xWgt1 $yWgt1
    element quad 19 5357 5229 5232 5361  $thick1 PlaneStrain 1 0.0 0.0 $xWgt1 $yWgt1
    element quad 20 5229 5098 5102 5232  $thick1 PlaneStrain 1 0.0 0.0 $xWgt1 $yWgt1
# ... 19980 like lines cut
puts "Finished creating all soil elements..."


#-----------------------------------------------------------------------------------------
#  4. LYSMER DASHPOT
#-----------------------------------------------------------------------------------------

# Bottom boundary

# define dashpot master nodes
    node 20302   -1000.000  -1000.000
    node 20303    -990.000  -1000.000
    node 20304    -980.000  -1000.000
    node 20305    -970.000  -1000.000
    node 20306    -960.000  -1000.000
    node 20307    -950.000  -1000.000
    node 20308    -940.000  -1000.000
    node 20309    -930.000  -1000.000
    node 20310    -920.000  -1000.000
    node 20311    -910.000  -1000.000
    node 20312    -900.000  -1000.000
    node 20313    -890.000  -1000.000
    node 20314    -880.000  -1000.000
    node 20315    -870.000  -1000.000
    node 20316    -860.000  -1000.000
    node 20317    -850.000  -1000.000
    node 20318    -840.000  -1000.000
    node 20319    -830.000  -1000.000
    node 20320    -820.000  -1000.000
    node 20321    -810.000  -1000.000
# ... 181 like lines cut

# define fixities for dashpot master nodes
    fix 20302 1 1
    fix 20303 1 1
    fix 20304 1 1
    fix 20305 1 1
    fix 20306 1 1
    fix 20307 1 1
    fix 20308 1 1
    fix 20309 1 1
    fix 20310 1 1
    fix 20311 1 1
    fix 20312 1 1
    fix 20313 1 1
    fix 20314 1 1
    fix 20315 1 1
    fix 20316 1 1
    fix 20317 1 1
    fix 20318 1 1
    fix 20319 1 1
    fix 20320 1 1
    fix 20321 1 1
# ... 181 like lines cut

# Left side boundary
    node	20503	-1000	-1000
    node	20504	-1000	-990
    node	20505	-1000	-980
    node	20506	-1000	-970
    node	20507	-1000	-960
    node	20508	-1000	-950
    node	20509	-1000	-940
    node	20510	-1000	-930
    node	20511	-1000	-920
    node	20512	-1000	-910
    node	20513	-1000	-900
    node	20514	-1000	-890
    node	20515	-1000	-880
    node	20516	-1000	-870
    node	20517	-1000	-860
    node	20518	-1000	-850
    node	20519	-1000	-840
    node	20520	-1000	-830
    node	20521	-1000	-820
    node	20522	-1000	-810
# ... 81 like lines cut
    			
    fix	20503	1	1
    fix	20504	1	1
    fix	20505	1	1
    fix	20506	1	1
    fix	20507	1	1
    fix	20508	1	1
    fix	20509	1	1
    fix	20510	1	1
    fix	20511	1	1
    fix	20512	1	1
    fix	20513	1	1
    fix	20514	1	1
    fix	20515	1	1
    fix	20516	1	1
    fix	20517	1	1
    fix	20518	1	1
    fix	20519	1	1
    fix	20520	1	1
    fix	20521	1	1
    fix	20522	1	1
# ... 81 like lines cut

# Right site boundary
    node	20604	1000	-1000
    node	20605	1000	-990
    node	20606	1000	-980
    node	20607	1000	-970
    node	20608	1000	-960
    node	20609	1000	-950
    node	20610	1000	-940
    node	20611	1000	-930
    node	20612	1000	-920
    node	20613	1000	-910
    node	20614	1000	-900
    node	20615	1000	-890
    node	20616	1000	-880
    node	20617	1000	-870
    node	20618	1000	-860
    node	20619	1000	-850
    node	20620	1000	-840
    node	20621	1000	-830
    node	20622	1000	-820
    node	20623	1000	-810
# ... 81 like lines cut
    			
    fix	20604	1	1
    fix	20605	1	1
    fix	20606	1	1
    fix	20607	1	1
    fix	20608	1	1
    fix	20609	1	1
    fix	20610	1	1
    fix	20611	1	1
    fix	20612	1	1
    fix	20613	1	1
    fix	20614	1	1
    fix	20615	1	1
    fix	20616	1	1
    fix	20617	1	1
    fix	20618	1	1
    fix	20619	1	1
    fix	20620	1	1
    fix	20621	1	1
    fix	20622	1	1
    fix	20623	1	1
# ... 81 like lines cut

puts "Finished creating dashpot nodes and boundary conditions..."

# define dashpot material 
set baseArea      10.00
set dashpotCoeff_s    [expr 2.0*1000]
set dashpotCoeff_p    [expr 2.0*1732]
uniaxialMaterial Viscous 2 [expr $dashpotCoeff_s*$baseArea] 1
uniaxialMaterial Viscous 3 [expr $dashpotCoeff_p*$baseArea] 1
uniaxialMaterial Viscous 4 [expr 0.5*$dashpotCoeff_s*$baseArea] 1
uniaxialMaterial Viscous 5 [expr 0.5*$dashpotCoeff_p*$baseArea] 1

# define dashpot element
# Bottom
    element	zeroLength	20001	1	20302	-mat	4	5	-dir	1	2
    element	zeroLength	20002	3	20303	-mat	2	3	-dir	1	2
    element	zeroLength	20003	6	20304	-mat	2	3	-dir	1	2
    element	zeroLength	20004	11	20305	-mat	2	3	-dir	1	2
    element	zeroLength	20005	17	20306	-mat	2	3	-dir	1	2
    element	zeroLength	20006	24	20307	-mat	2	3	-dir	1	2
    element	zeroLength	20007	35	20308	-mat	2	3	-dir	1	2
    element	zeroLength	20008	45	20309	-mat	2	3	-dir	1	2
    element	zeroLength	20009	58	20310	-mat	2	3	-dir	1	2
    element	zeroLength	20010	73	20311	-mat	2	3	-dir	1	2
    element	zeroLength	20011	88	20312	-mat	2	3	-dir	1	2
    element	zeroLength	20012	106	20313	-mat	2	3	-dir	1	2
    element	zeroLength	20013	123	20314	-mat	2	3	-dir	1	2
    element	zeroLength	20014	144	20315	-mat	2	3	-dir	1	2
    element	zeroLength	20015	168	20316	-mat	2	3	-dir	1	2
    element	zeroLength	20016	191	20317	-mat	2	3	-dir	1	2
    element	zeroLength	20017	216	20318	-mat	2	3	-dir	1	2
    element	zeroLength	20018	241	20319	-mat	2	3	-dir	1	2
    element	zeroLength	20019	271	20320	-mat	2	3	-dir	1	2
    element	zeroLength	20020	302	20321	-mat	2	3	-dir	1	2
# ... 181 like lines cut
# Left
    element	zeroLength	20202	1	20503	-mat	5	4	-dir	1	2
    element	zeroLength	20203	2	20504	-mat	3	2	-dir	1	2
    element	zeroLength	20204	5	20505	-mat	3	2	-dir	1	2
    element	zeroLength	20205	10	20506	-mat	3	2	-dir	1	2
    element	zeroLength	20206	16	20507	-mat	3	2	-dir	1	2
    element	zeroLength	20207	23	20508	-mat	3	2	-dir	1	2
    element	zeroLength	20208	34	20509	-mat	3	2	-dir	1	2
    element	zeroLength	20209	44	20510	-mat	3	2	-dir	1	2
    element	zeroLength	20210	57	20511	-mat	3	2	-dir	1	2
    element	zeroLength	20211	72	20512	-mat	3	2	-dir	1	2
    element	zeroLength	20212	87	20513	-mat	3	2	-dir	1	2
    element	zeroLength	20213	105	20514	-mat	3	2	-dir	1	2
    element	zeroLength	20214	122	20515	-mat	3	2	-dir	1	2
    element	zeroLength	20215	143	20516	-mat	3	2	-dir	1	2
    element	zeroLength	20216	167	20517	-mat	3	2	-dir	1	2
    element	zeroLength	20217	190	20518	-mat	3	2	-dir	1	2
    element	zeroLength	20218	215	20519	-mat	3	2	-dir	1	2
    element	zeroLength	20219	240	20520	-mat	3	2	-dir	1	2
    element	zeroLength	20220	270	20521	-mat	3	2	-dir	1	2
    element	zeroLength	20221	301	20522	-mat	3	2	-dir	1	2
# ... 81 like lines cut
# Right
    element	zeroLength	20303	19365	20604	-mat	5	4	-dir	1	2
    element	zeroLength	20304	19369	20605	-mat	3	2	-dir	1	2
    element	zeroLength	20305	19371	20606	-mat	3	2	-dir	1	2
    element	zeroLength	20306	19372	20607	-mat	3	2	-dir	1	2
    element	zeroLength	20307	19376	20608	-mat	3	2	-dir	1	2
    element	zeroLength	20308	19377	20609	-mat	3	2	-dir	1	2
    element	zeroLength	20309	19380	20610	-mat	3	2	-dir	1	2
    element	zeroLength	20310	19384	20611	-mat	3	2	-dir	1	2
    element	zeroLength	20311	19388	20612	-mat	3	2	-dir	1	2
    element	zeroLength	20312	19393	20613	-mat	3	2	-dir	1	2
    element	zeroLength	20313	19398	20614	-mat	3	2	-dir	1	2
    element	zeroLength	20314	19403	20615	-mat	3	2	-dir	1	2
    element	zeroLength	20315	19408	20616	-mat	3	2	-dir	1	2
    element	zeroLength	20316	19417	20617	-mat	3	2	-dir	1	2
    element	zeroLength	20317	19423	20618	-mat	3	2	-dir	1	2
    element	zeroLength	20318	19429	20619	-mat	3	2	-dir	1	2
    element	zeroLength	20319	19439	20620	-mat	3	2	-dir	1	2
    element	zeroLength	20320	19444	20621	-mat	3	2	-dir	1	2
    element	zeroLength	20321	19450	20622	-mat	3	2	-dir	1	2
    element	zeroLength	20322	19465	20623	-mat	3	2	-dir	1	2
# ... 81 like lines cut
puts "Finished creating dashpot material and element..."


#-----------------------------------------------------------------------------------------
#  6. CREATE GRAVITY RECORDERS
#-----------------------------------------------------------------------------------------

# record nodal displacment, acceleration, and porepressure
#recorder Node -file Gdisplacement.out -time -nodeRange 1 20301 -dof 1 2  disp
#recorder Node -file Gacceleration.out -time -nodeRange 1 20301 -dof 1 2  accel
# record elemental stress and strain
#recorder Element -file Gstress1.out   -time  -eleRange 1 20000  material 1 stress
#recorder Element -file Gstress2.out   -time  -eleRange 1 20000  material 2 stress
#recorder Element -file Gstress3.out   -time  -eleRange 1 20000  material 3 stress
#recorder Element -file Gstress4.out   -time  -eleRange 1 20000  material 4 stress
#recorder Element -file Gstrain1.out   -time  -eleRange 1 20000  material 1 strain
#recorder Element -file Gstrain2.out   -time  -eleRange 1 20000  material 2 strain
#recorder Element -file Gstrain3.out   -time  -eleRange 1 20000  material 3 strain
#recorder Element -file Gstrain4.out   -time  -eleRange 1 20000  material 4 strain
puts "Finished creating gravity recorders..."

#-----------------------------------------------------------------------------------------
#  7. DEFINE ANALYSIS PARAMETERS
#-----------------------------------------------------------------------------------------

#---GROUND MOTION PARAMETERS
# time step in ground motion record
set motionDT     0.005
# number of steps in ground motion record
set motionSteps  7990

#---RAYLEIGH DAMPING PARAMETERS
set pi      3.141592654
# damping ratio
set damp    0.00
# lower frequency
set omega1  [expr 2*$pi*0.2]
# upper frequency
set omega2  [expr 2*$pi*20]
# damping coefficients
set a0      [expr 2*$damp*$omega1*$omega2/($omega1 + $omega2)]
set a1      [expr 2*$damp/($omega1 + $omega2)]
puts "damping coefficients: a_0 = $a0;  a_1 = $a1"

#---DETERMINE STABLE ANALYSIS TIME STEP USING CFL CONDITION
# # maximum shear wave velocity (m/s)
# set vsMax       1000.0
# # element size (m)
# set eleSize           10
# # duration of ground motion (s)
# set duration    [expr $motionDT*$motionSteps]
# # trial analysis time step
# set kTrial      [expr $eleSize/(pow($vsMax,0.5))]
# # define time step and number of steps for analysis
# if { $motionDT <= $kTrial } {
#     set nSteps  $motionSteps
#     set dT      $motionDT
# } else {
#     set nSteps  [expr int(floor($duration/$kTrial)+1)]
#     set dT      [expr $duration/$nSteps]
# }
set nSteps 1000
set dT 0.01
# dt=0.1 should satisfy CFL condition
puts "number of steps in analysis: $nSteps"
puts "analysis time step: $dT"

#---ANALYSIS PARAMETERS
# Newmark parameters
set gamma  0.5
set beta   0.25

#-----------------------------------------------------------------------------------------
#  8. GRAVITY ANALYSIS
#-----------------------------------------------------------------------------------------

# update materials to ensure elastic behavior
#updateMaterialStage -material 1 -stage 0

constraints Transformation
#test        NormDispIncr 1e-6 35 1
algorithm   Linear
#algorithm   ModifiedNewton
numberer    RCM
#system      Diagonal
#integrator  CentralDifference
system      Mumps
integrator  Newmark $gamma $beta
analysis    Transient

set startT  [clock seconds]
#analyze     10 5.0e2
#analyze     10 5.0e3
puts "Finished with elastic gravity analysis..."

# update materials to consider plastic behavior
#updateMaterialStage -material 1 -stage 1

# plastic gravity loading
#analyze     10 5.0e-3
puts "Finished with plastic gravity analysis..."

#-----------------------------------------------------------------------------------------
#  9. CREATE POST-GRAVITY RECORDERS
#-----------------------------------------------------------------------------------------

# reset time and analysis
setTime 0.0
wipeAnalysis
remove recorders

# recorder time step
set recDT  [expr 1*$motionDT]

# record nodal displacment, acceleration, and porepressure
recorder Node -file displacement.out -time -dT $recDT -nodeRange 1 20301 -dof 1 2  disp
recorder Node -file acceleration.out -time -dT $recDT -nodeRange 1 20301 -dof 1 2  accel
# record elemental stress and strain
#recorder Element -file stress1.out   -time -dT $recDT  -eleRange 1 20000  material 1 stress
#recorder Element -file stress2.out   -time -dT $recDT  -eleRange 1 20000  material 2 stress
#recorder Element -file stress3.out   -time -dT $recDT  -eleRange 1 20000  material 3 stress
#recorder Element -file stress4.out   -time -dT $recDT  -eleRange 1 20000  material 4 stress
#recorder Element -file strain1.out   -time -dT $recDT  -eleRange 1 20000  material 1 strain
#recorder Element -file strain2.out   -time -dT $recDT  -eleRange 1 20000  material 2 strain
#recorder Element -file strain3.out   -time -dT $recDT  -eleRange 1 20000  material 3 strain
#recorder Element -file strain4.out   -time -dT $recDT  -eleRange 1 20000  material 4 strain
recorder pvd Lamb disp
puts "Finished creating all recorders..."

#-----------------------------------------------------------------------------------------
#  10. DYNAMIC ANALYSIS
#-----------------------------------------------------------------------------------------

# define constant scaling factor for applied force
set cFactor 1.0

# define force time history file
set forceFile forceHistoryTri.txt

# timeseries object for force history
set mSeries "Path -dt $motionDT -filePath $forceFile -factor $cFactor"

# loading object
pattern Plain 10 $mSeries {
    load 13026 0.0 -1.0
}
puts "Dynamic loading created..."

constraints Transformation
#test        NormDispIncr 1.0e-6 35 1
algorithm   Linear
#algorithm   ModifiedNewton
numberer    RCM
system      Mumps
integrator  Newmark $gamma $beta
#system      Diagonal
#integrator  CentralDifference
#rayleigh    $a0 $a1 0.0 0.0
analysis    Transient

# perform analysis with timestep reduction loop
set ok [analyze $nSteps  $dT]

# if analysis fails, reduce timestep and continue with analysis
if {$ok != 0} {
    puts "did not converge, reducing time step"
    set curTime  [getTime]
    puts "curTime: $curTime"
    set curStep  [expr $curTime/$dT]
    puts "curStep: $curStep"
    set remStep  [expr int(($nSteps-$curStep)*2.0)]
    puts "remStep: $remStep"
    set dT       [expr $dT/2.0]
    puts "dT: $dT"

    set ok [analyze  $remStep  $dT]

    # if analysis fails again, reduce timestep and continue with analysis
    if {$ok != 0} {
        puts "did not converge, reducing time step"
        set curTime  [getTime]
        puts "curTime: $curTime"
        set curStep  [expr $curTime/$dT]
        puts "curStep: $curStep"
        set remStep  [expr int(($remStep-$curStep)*2.0)]
        puts "remStep: $remStep"
        set dT       [expr $dT/2.0]
        puts "dT: $dT"

        analyze  $remStep  $dT
    }
}
set endT    [clock seconds]
puts "Finished with dynamic analysis..."
puts "Analysis execution time: [expr $endT-$startT] seconds"

wipe
